
model basic -ndm  2 -ndf 3
uniaxialMaterial Elastic 1 5 6
uniaxialMaterial Elastic 2 7 8
uniaxialMaterial Elastic 1 9 10

